Version 4.1
SHEET 1 1268 680
WIRE 640 -352 -288 -352
WIRE -288 -272 -288 -352
WIRE -208 -272 -288 -272
WIRE 160 -272 48 -272
WIRE 192 -272 160 -272
WIRE 304 -272 192 -272
WIRE -208 -208 -320 -208
WIRE 416 -192 352 -192
WIRE 640 -192 640 -352
WIRE 640 -192 496 -192
WIRE -320 -176 -320 -208
WIRE 352 -144 352 -192
WIRE 352 -144 48 -144
WIRE 432 -112 80 -112
WIRE 480 -112 432 -112
WIRE 640 -112 640 -192
WIRE 640 -112 560 -112
WIRE -320 -80 -320 -112
WIRE -208 -80 -320 -80
WIRE -192 -80 -208 -80
WIRE 80 -80 80 -112
WIRE 80 -80 48 -80
WIRE 432 -48 432 -112
WIRE 192 16 192 -272
WIRE 192 16 144 16
WIRE 192 48 192 16
WIRE 240 48 192 48
WIRE 96 64 64 64
WIRE 400 64 176 64
WIRE 192 128 192 48
WIRE -48 144 -96 144
WIRE 64 144 64 64
WIRE 64 144 32 144
WIRE 160 144 64 144
WIRE 400 160 400 64
WIRE 400 160 224 160
WIRE 160 176 48 176
WIRE 48 240 48 176
WIRE -96 288 -96 144
WIRE 192 320 192 192
WIRE 432 320 432 32
WIRE 432 320 192 320
WIRE 432 352 432 320
WIRE 576 352 432 352
WIRE 640 352 640 -112
WIRE 432 400 432 352
WIRE 432 400 400 400
WIRE 480 400 432 400
WIRE 432 464 400 464
WIRE 480 464 432 464
WIRE 432 512 432 464
WIRE 0 0 0 0
FLAG 48 320 0
FLAG -96 288 0
FLAG 400 160 out
FLAG 400 240 0
FLAG 144 -48 0
FLAG 240 -16 0
FLAG -208 -144 0
FLAG 304 -208 0
FLAG 160 -192 0
FLAG 432 512 0
SYMBOL OpAmps\\LT1224 192 96 R0
SYMATTR InstName U1
SYMBOL res 192 48 R90
WINDOW 0 0 56 VBottom 2
WINDOW 3 32 56 VTop 2
SYMATTR InstName R2
SYMATTR Value 9000
SYMBOL voltage 48 224 R0
WINDOW 123 0 0 Left 0
WINDOW 39 0 0 Left 0
SYMATTR InstName V2
SYMATTR Value SINE(.5 .501 300k)
SYMBOL res 48 128 R90
WINDOW 0 0 56 VBottom 2
WINDOW 3 32 56 VTop 2
SYMATTR InstName R1
SYMATTR Value 1000
SYMBOL res 384 144 R0
SYMATTR InstName R3
SYMATTR Value 5000k
SYMBOL PowerProducts\\LT1054 -80 -176 R0
SYMATTR InstName U2
SYMBOL cap -336 -176 R0
SYMATTR InstName C1
SYMATTR Value 27µ
SYMATTR SpiceLine V=20
SYMBOL voltage 160 -288 R0
WINDOW 123 0 0 Left 0
WINDOW 39 0 0 Left 0
SYMATTR InstName V1
SYMATTR Value 12
SYMBOL cap 256 48 R180
WINDOW 0 24 56 Left 2
WINDOW 3 24 8 Left 2
SYMATTR InstName C3
SYMATTR Value .1µ
SYMBOL cap 160 16 R180
WINDOW 0 24 56 Left 2
WINDOW 3 24 8 Left 2
SYMATTR InstName C5
SYMATTR Value 10µ
SYMBOL cap 288 -272 R0
SYMATTR InstName C2
SYMATTR Value 2µ
SYMBOL res 576 -128 R90
WINDOW 0 0 56 VBottom 2
WINDOW 3 32 56 VTop 2
SYMATTR InstName R5
SYMATTR Value 222k
SYMBOL cap 416 464 R180
WINDOW 0 24 56 Left 2
WINDOW 3 24 8 Left 2
SYMATTR InstName C8
SYMATTR Value 27µ
SYMBOL cap 576 368 R270
WINDOW 0 32 32 VTop 2
WINDOW 3 0 32 VBottom 2
SYMATTR InstName C4
SYMATTR Value .002µ
SYMBOL res 512 -208 R90
WINDOW 0 0 56 VBottom 2
WINDOW 3 32 56 VTop 2
SYMATTR InstName R4
SYMATTR Value 20k
SYMBOL cap 496 464 R180
WINDOW 0 24 56 Left 2
WINDOW 3 24 8 Left 2
SYMATTR InstName C6
SYMATTR Value .1µ
SYMBOL ind 448 48 R180
WINDOW 0 36 80 Left 2
WINDOW 3 36 40 Left 2
SYMATTR InstName L1
SYMATTR Value 100µ
TEXT 160 488 Left 2 !.tran 0 10ms 9ms
